
---------- Begin Simulation Statistics ----------
simSeconds                                   0.001595                       # Number of seconds simulated (Second)
simTicks                                   1595034500                       # Number of ticks simulated (Tick)
finalTick                                  1595034500                       # Number of ticks from beginning of simulation (restored from checkpoints and never reset) (Tick)
simFreq                                  1000000000000                       # The number of ticks per simulated second ((Tick/Second))
hostSeconds                                     10.74                       # Real time elapsed on the host (Second)
hostTickRate                                148573733                       # The number of ticks simulated per host second (ticks/s) ((Tick/Second))
hostMemory                                    8675012                       # Number of bytes of host memory used (Byte)
simInsts                                      2235235                       # Number of instructions simulated (Count)
simOps                                        3895248                       # Number of ops (including micro ops) simulated (Count)
hostInstRate                                   208205                       # Simulator instruction rate (inst/s) ((Count/Second))
hostOpRate                                     362829                       # Simulator op (including micro ops) rate (op/s) ((Count/Second))
system.clk_domain.clock                          1000                       # Clock period in ticks (Tick)
system.cpu0.numCycles                         6380139                       # Number of cpu cycles simulated (Cycle)
system.cpu0.numWorkItemsStarted                     0                       # Number of work items this cpu started (Count)
system.cpu0.numWorkItemsCompleted                   0                       # Number of work items this cpu completed (Count)
system.cpu0.instsAdded                        4905465                       # Number of instructions added to the IQ (excludes non-spec) (Count)
system.cpu0.nonSpecInstsAdded                     129                       # Number of non-speculative instructions added to the IQ (Count)
system.cpu0.instsIssued                       4535093                       # Number of instructions issued (Count)
system.cpu0.squashedInstsIssued                  3217                       # Number of squashed instructions issued (Count)
system.cpu0.squashedInstsExamined             1010340                       # Number of squashed instructions iterated over during squash; mainly for profiling (Count)
system.cpu0.squashedOperandsExamined          2117667                       # Number of squashed operands that are examined and possibly removed from graph (Count)
system.cpu0.squashedNonSpecRemoved                 10                       # Number of squashed non-spec instructions that were removed (Count)
system.cpu0.numIssuedDist::samples            5890304                       # Number of insts issued each cycle (Count)
system.cpu0.numIssuedDist::mean              0.769925                       # Number of insts issued each cycle (Count)
system.cpu0.numIssuedDist::stdev             1.774199                       # Number of insts issued each cycle (Count)
system.cpu0.numIssuedDist::underflows               0      0.00%      0.00% # Number of insts issued each cycle (Count)
system.cpu0.numIssuedDist::0                  4728005     80.27%     80.27% # Number of insts issued each cycle (Count)
system.cpu0.numIssuedDist::1                   128396      2.18%     82.45% # Number of insts issued each cycle (Count)
system.cpu0.numIssuedDist::2                   204499      3.47%     85.92% # Number of insts issued each cycle (Count)
system.cpu0.numIssuedDist::3                   192445      3.27%     89.19% # Number of insts issued each cycle (Count)
system.cpu0.numIssuedDist::4                   203197      3.45%     92.64% # Number of insts issued each cycle (Count)
system.cpu0.numIssuedDist::5                   163017      2.77%     95.40% # Number of insts issued each cycle (Count)
system.cpu0.numIssuedDist::6                   151231      2.57%     97.97% # Number of insts issued each cycle (Count)
system.cpu0.numIssuedDist::7                    71007      1.21%     99.18% # Number of insts issued each cycle (Count)
system.cpu0.numIssuedDist::8                    48507      0.82%    100.00% # Number of insts issued each cycle (Count)
system.cpu0.numIssuedDist::overflows                0      0.00%    100.00% # Number of insts issued each cycle (Count)
system.cpu0.numIssuedDist::min_value                0                       # Number of insts issued each cycle (Count)
system.cpu0.numIssuedDist::max_value                8                       # Number of insts issued each cycle (Count)
system.cpu0.numIssuedDist::total              5890304                       # Number of insts issued each cycle (Count)
system.cpu0.statFuBusy::No_OpClass                  0      0.00%      0.00% # attempts to use FU when none available (Count)
system.cpu0.statFuBusy::IntAlu                  50590     70.09%     70.09% # attempts to use FU when none available (Count)
system.cpu0.statFuBusy::IntMult                     0      0.00%     70.09% # attempts to use FU when none available (Count)
system.cpu0.statFuBusy::IntDiv                      0      0.00%     70.09% # attempts to use FU when none available (Count)
system.cpu0.statFuBusy::FloatAdd                    0      0.00%     70.09% # attempts to use FU when none available (Count)
system.cpu0.statFuBusy::FloatCmp                    0      0.00%     70.09% # attempts to use FU when none available (Count)
system.cpu0.statFuBusy::FloatCvt                    0      0.00%     70.09% # attempts to use FU when none available (Count)
system.cpu0.statFuBusy::FloatMult                   0      0.00%     70.09% # attempts to use FU when none available (Count)
system.cpu0.statFuBusy::FloatMultAcc                0      0.00%     70.09% # attempts to use FU when none available (Count)
system.cpu0.statFuBusy::FloatDiv                    0      0.00%     70.09% # attempts to use FU when none available (Count)
system.cpu0.statFuBusy::FloatMisc                   0      0.00%     70.09% # attempts to use FU when none available (Count)
system.cpu0.statFuBusy::FloatSqrt                   0      0.00%     70.09% # attempts to use FU when none available (Count)
system.cpu0.statFuBusy::SimdAdd                     1      0.00%     70.09% # attempts to use FU when none available (Count)
system.cpu0.statFuBusy::SimdAddAcc                  0      0.00%     70.09% # attempts to use FU when none available (Count)
system.cpu0.statFuBusy::SimdAlu                    37      0.05%     70.15% # attempts to use FU when none available (Count)
system.cpu0.statFuBusy::SimdCmp                     0      0.00%     70.15% # attempts to use FU when none available (Count)
system.cpu0.statFuBusy::SimdCvt                   750      1.04%     71.18% # attempts to use FU when none available (Count)
system.cpu0.statFuBusy::SimdMisc                   12      0.02%     71.20% # attempts to use FU when none available (Count)
system.cpu0.statFuBusy::SimdMult                    0      0.00%     71.20% # attempts to use FU when none available (Count)
system.cpu0.statFuBusy::SimdMultAcc                 0      0.00%     71.20% # attempts to use FU when none available (Count)
system.cpu0.statFuBusy::SimdShift                  10      0.01%     71.21% # attempts to use FU when none available (Count)
system.cpu0.statFuBusy::SimdShiftAcc                0      0.00%     71.21% # attempts to use FU when none available (Count)
system.cpu0.statFuBusy::SimdDiv                     0      0.00%     71.21% # attempts to use FU when none available (Count)
system.cpu0.statFuBusy::SimdSqrt                    0      0.00%     71.21% # attempts to use FU when none available (Count)
system.cpu0.statFuBusy::SimdFloatAdd                0      0.00%     71.21% # attempts to use FU when none available (Count)
system.cpu0.statFuBusy::SimdFloatAlu                0      0.00%     71.21% # attempts to use FU when none available (Count)
system.cpu0.statFuBusy::SimdFloatCmp                0      0.00%     71.21% # attempts to use FU when none available (Count)
system.cpu0.statFuBusy::SimdFloatCvt                0      0.00%     71.21% # attempts to use FU when none available (Count)
system.cpu0.statFuBusy::SimdFloatDiv                0      0.00%     71.21% # attempts to use FU when none available (Count)
system.cpu0.statFuBusy::SimdFloatMisc               0      0.00%     71.21% # attempts to use FU when none available (Count)
system.cpu0.statFuBusy::SimdFloatMult               0      0.00%     71.21% # attempts to use FU when none available (Count)
system.cpu0.statFuBusy::SimdFloatMultAcc            0      0.00%     71.21% # attempts to use FU when none available (Count)
system.cpu0.statFuBusy::SimdFloatSqrt               0      0.00%     71.21% # attempts to use FU when none available (Count)
system.cpu0.statFuBusy::SimdReduceAdd               0      0.00%     71.21% # attempts to use FU when none available (Count)
system.cpu0.statFuBusy::SimdReduceAlu               0      0.00%     71.21% # attempts to use FU when none available (Count)
system.cpu0.statFuBusy::SimdReduceCmp               0      0.00%     71.21% # attempts to use FU when none available (Count)
system.cpu0.statFuBusy::SimdFloatReduceAdd            0      0.00%     71.21% # attempts to use FU when none available (Count)
system.cpu0.statFuBusy::SimdFloatReduceCmp            0      0.00%     71.21% # attempts to use FU when none available (Count)
system.cpu0.statFuBusy::SimdAes                     0      0.00%     71.21% # attempts to use FU when none available (Count)
system.cpu0.statFuBusy::SimdAesMix                  0      0.00%     71.21% # attempts to use FU when none available (Count)
system.cpu0.statFuBusy::SimdSha1Hash                0      0.00%     71.21% # attempts to use FU when none available (Count)
system.cpu0.statFuBusy::SimdSha1Hash2               0      0.00%     71.21% # attempts to use FU when none available (Count)
system.cpu0.statFuBusy::SimdSha256Hash              0      0.00%     71.21% # attempts to use FU when none available (Count)
system.cpu0.statFuBusy::SimdSha256Hash2             0      0.00%     71.21% # attempts to use FU when none available (Count)
system.cpu0.statFuBusy::SimdShaSigma2               0      0.00%     71.21% # attempts to use FU when none available (Count)
system.cpu0.statFuBusy::SimdShaSigma3               0      0.00%     71.21% # attempts to use FU when none available (Count)
system.cpu0.statFuBusy::SimdPredAlu                 0      0.00%     71.21% # attempts to use FU when none available (Count)
system.cpu0.statFuBusy::MemRead                 13666     18.93%     90.15% # attempts to use FU when none available (Count)
system.cpu0.statFuBusy::MemWrite                 6695      9.28%     99.43% # attempts to use FU when none available (Count)
system.cpu0.statFuBusy::FloatMemRead              219      0.30%     99.73% # attempts to use FU when none available (Count)
system.cpu0.statFuBusy::FloatMemWrite             196      0.27%    100.00% # attempts to use FU when none available (Count)
system.cpu0.statFuBusy::IprAccess                   0      0.00%    100.00% # attempts to use FU when none available (Count)
system.cpu0.statFuBusy::InstPrefetch                0      0.00%    100.00% # attempts to use FU when none available (Count)
system.cpu0.statIssuedInstType_0::No_OpClass        16968      0.37%      0.37% # Number of instructions issued per FU type, per thread (Count)
system.cpu0.statIssuedInstType_0::IntAlu      3601293     79.41%     79.78% # Number of instructions issued per FU type, per thread (Count)
system.cpu0.statIssuedInstType_0::IntMult           40      0.00%     79.78% # Number of instructions issued per FU type, per thread (Count)
system.cpu0.statIssuedInstType_0::IntDiv        38749      0.85%     80.64% # Number of instructions issued per FU type, per thread (Count)
system.cpu0.statIssuedInstType_0::FloatAdd         6348      0.14%     80.78% # Number of instructions issued per FU type, per thread (Count)
system.cpu0.statIssuedInstType_0::FloatCmp            0      0.00%     80.78% # Number of instructions issued per FU type, per thread (Count)
system.cpu0.statIssuedInstType_0::FloatCvt          218      0.00%     80.78% # Number of instructions issued per FU type, per thread (Count)
system.cpu0.statIssuedInstType_0::FloatMult            0      0.00%     80.78% # Number of instructions issued per FU type, per thread (Count)
system.cpu0.statIssuedInstType_0::FloatMultAcc            0      0.00%     80.78% # Number of instructions issued per FU type, per thread (Count)
system.cpu0.statIssuedInstType_0::FloatDiv            0      0.00%     80.78% # Number of instructions issued per FU type, per thread (Count)
system.cpu0.statIssuedInstType_0::FloatMisc            0      0.00%     80.78% # Number of instructions issued per FU type, per thread (Count)
system.cpu0.statIssuedInstType_0::FloatSqrt            0      0.00%     80.78% # Number of instructions issued per FU type, per thread (Count)
system.cpu0.statIssuedInstType_0::SimdAdd         6839      0.15%     80.93% # Number of instructions issued per FU type, per thread (Count)
system.cpu0.statIssuedInstType_0::SimdAddAcc            0      0.00%     80.93% # Number of instructions issued per FU type, per thread (Count)
system.cpu0.statIssuedInstType_0::SimdAlu        12995      0.29%     81.22% # Number of instructions issued per FU type, per thread (Count)
system.cpu0.statIssuedInstType_0::SimdCmp            6      0.00%     81.22% # Number of instructions issued per FU type, per thread (Count)
system.cpu0.statIssuedInstType_0::SimdCvt        14582      0.32%     81.54% # Number of instructions issued per FU type, per thread (Count)
system.cpu0.statIssuedInstType_0::SimdMisc        13153      0.29%     81.83% # Number of instructions issued per FU type, per thread (Count)
system.cpu0.statIssuedInstType_0::SimdMult            0      0.00%     81.83% # Number of instructions issued per FU type, per thread (Count)
system.cpu0.statIssuedInstType_0::SimdMultAcc            0      0.00%     81.83% # Number of instructions issued per FU type, per thread (Count)
system.cpu0.statIssuedInstType_0::SimdShift          723      0.02%     81.85% # Number of instructions issued per FU type, per thread (Count)
system.cpu0.statIssuedInstType_0::SimdShiftAcc            0      0.00%     81.85% # Number of instructions issued per FU type, per thread (Count)
system.cpu0.statIssuedInstType_0::SimdDiv            0      0.00%     81.85% # Number of instructions issued per FU type, per thread (Count)
system.cpu0.statIssuedInstType_0::SimdSqrt            0      0.00%     81.85% # Number of instructions issued per FU type, per thread (Count)
system.cpu0.statIssuedInstType_0::SimdFloatAdd            0      0.00%     81.85% # Number of instructions issued per FU type, per thread (Count)
system.cpu0.statIssuedInstType_0::SimdFloatAlu            0      0.00%     81.85% # Number of instructions issued per FU type, per thread (Count)
system.cpu0.statIssuedInstType_0::SimdFloatCmp            0      0.00%     81.85% # Number of instructions issued per FU type, per thread (Count)
system.cpu0.statIssuedInstType_0::SimdFloatCvt            0      0.00%     81.85% # Number of instructions issued per FU type, per thread (Count)
system.cpu0.statIssuedInstType_0::SimdFloatDiv            0      0.00%     81.85% # Number of instructions issued per FU type, per thread (Count)
system.cpu0.statIssuedInstType_0::SimdFloatMisc            0      0.00%     81.85% # Number of instructions issued per FU type, per thread (Count)
system.cpu0.statIssuedInstType_0::SimdFloatMult            0      0.00%     81.85% # Number of instructions issued per FU type, per thread (Count)
system.cpu0.statIssuedInstType_0::SimdFloatMultAcc            0      0.00%     81.85% # Number of instructions issued per FU type, per thread (Count)
system.cpu0.statIssuedInstType_0::SimdFloatSqrt            0      0.00%     81.85% # Number of instructions issued per FU type, per thread (Count)
system.cpu0.statIssuedInstType_0::SimdReduceAdd            0      0.00%     81.85% # Number of instructions issued per FU type, per thread (Count)
system.cpu0.statIssuedInstType_0::SimdReduceAlu            0      0.00%     81.85% # Number of instructions issued per FU type, per thread (Count)
system.cpu0.statIssuedInstType_0::SimdReduceCmp            0      0.00%     81.85% # Number of instructions issued per FU type, per thread (Count)
system.cpu0.statIssuedInstType_0::SimdFloatReduceAdd            0      0.00%     81.85% # Number of instructions issued per FU type, per thread (Count)
system.cpu0.statIssuedInstType_0::SimdFloatReduceCmp            0      0.00%     81.85% # Number of instructions issued per FU type, per thread (Count)
system.cpu0.statIssuedInstType_0::SimdAes            0      0.00%     81.85% # Number of instructions issued per FU type, per thread (Count)
system.cpu0.statIssuedInstType_0::SimdAesMix            0      0.00%     81.85% # Number of instructions issued per FU type, per thread (Count)
system.cpu0.statIssuedInstType_0::SimdSha1Hash            0      0.00%     81.85% # Number of instructions issued per FU type, per thread (Count)
system.cpu0.statIssuedInstType_0::SimdSha1Hash2            0      0.00%     81.85% # Number of instructions issued per FU type, per thread (Count)
system.cpu0.statIssuedInstType_0::SimdSha256Hash            0      0.00%     81.85% # Number of instructions issued per FU type, per thread (Count)
system.cpu0.statIssuedInstType_0::SimdSha256Hash2            0      0.00%     81.85% # Number of instructions issued per FU type, per thread (Count)
system.cpu0.statIssuedInstType_0::SimdShaSigma2            0      0.00%     81.85% # Number of instructions issued per FU type, per thread (Count)
system.cpu0.statIssuedInstType_0::SimdShaSigma3            0      0.00%     81.85% # Number of instructions issued per FU type, per thread (Count)
system.cpu0.statIssuedInstType_0::SimdPredAlu            0      0.00%     81.85% # Number of instructions issued per FU type, per thread (Count)
system.cpu0.statIssuedInstType_0::MemRead       581812     12.83%     94.68% # Number of instructions issued per FU type, per thread (Count)
system.cpu0.statIssuedInstType_0::MemWrite       211707      4.67%     99.35% # Number of instructions issued per FU type, per thread (Count)
system.cpu0.statIssuedInstType_0::FloatMemRead        17452      0.38%     99.73% # Number of instructions issued per FU type, per thread (Count)
system.cpu0.statIssuedInstType_0::FloatMemWrite        12208      0.27%    100.00% # Number of instructions issued per FU type, per thread (Count)
system.cpu0.statIssuedInstType_0::IprAccess            0      0.00%    100.00% # Number of instructions issued per FU type, per thread (Count)
system.cpu0.statIssuedInstType_0::InstPrefetch            0      0.00%    100.00% # Number of instructions issued per FU type, per thread (Count)
system.cpu0.statIssuedInstType_0::total       4535093                       # Number of instructions issued per FU type, per thread (Count)
system.cpu0.issueRate                        0.710814                       # Inst issue rate ((Count/Cycle))
system.cpu0.fuBusy                              72176                       # FU busy when requested (Count)
system.cpu0.fuBusyRate                       0.015915                       # FU busy rate (busy events/executed inst) ((Count/Count))
system.cpu0.intInstQueueReads                14859188                       # Number of integer instruction queue reads (Count)
system.cpu0.intInstQueueWrites                5797128                       # Number of integer instruction queue writes (Count)
system.cpu0.intInstQueueWakeupAccesses        4404826                       # Number of integer instruction queue wakeup accesses (Count)
system.cpu0.fpInstQueueReads                   176695                       # Number of floating instruction queue reads (Count)
system.cpu0.fpInstQueueWrites                  118915                       # Number of floating instruction queue writes (Count)
system.cpu0.fpInstQueueWakeupAccesses           85421                       # Number of floating instruction queue wakeup accesses (Count)
system.cpu0.vecInstQueueReads                       0                       # Number of vector instruction queue reads (Count)
system.cpu0.vecInstQueueWrites                      0                       # Number of vector instruction queue writes (Count)
system.cpu0.vecInstQueueWakeupAccesses              0                       # Number of vector instruction queue wakeup accesses (Count)
system.cpu0.intAluAccesses                    4501418                       # Number of integer alu accesses (Count)
system.cpu0.fpAluAccesses                       88883                       # Number of floating point alu accesses (Count)
system.cpu0.vecAluAccesses                          0                       # Number of vector alu accesses (Count)
system.cpu0.numInsts                          4508149                       # Number of executed instructions (Count)
system.cpu0.numLoadInsts                       592606                       # Number of load instructions executed (Count)
system.cpu0.numSquashedInsts                    26944                       # Number of squashed instructions skipped in execute (Count)
system.cpu0.numSwp                                  0                       # Number of swp insts executed (Count)
system.cpu0.numNop                                  0                       # Number of nop insts executed (Count)
system.cpu0.numRefs                            814037                       # Number of memory reference insts executed (Count)
system.cpu0.numBranches                        383394                       # Number of branches executed (Count)
system.cpu0.numStoreInsts                      221431                       # Number of stores executed (Count)
system.cpu0.numRate                          0.706591                       # Inst execution rate ((Count/Cycle))
system.cpu0.timesIdled                           1010                       # Number of times that the entire CPU went into an idle state and unscheduled itself (Count)
system.cpu0.idleCycles                         489835                       # Total number of cycles that the CPU has spent unscheduled due to idling (Cycle)
system.cpu0.committedInsts                    2235235                       # Number of Instructions Simulated (Count)
system.cpu0.committedOps                      3895248                       # Number of Ops (including micro ops) Simulated (Count)
system.cpu0.cpi                              2.854348                       # CPI: Cycles Per Instruction ((Cycle/Count))
system.cpu0.totalCpi                         2.854348                       # CPI: Total CPI of All Threads ((Cycle/Count))
system.cpu0.ipc                              0.350343                       # IPC: Instructions Per Cycle ((Count/Cycle))
system.cpu0.totalIpc                         0.350343                       # IPC: Total IPC of All Threads ((Count/Cycle))
system.cpu0.intRegfileReads                   6317258                       # Number of integer regfile reads (Count)
system.cpu0.intRegfileWrites                  3564765                       # Number of integer regfile writes (Count)
system.cpu0.fpRegfileReads                     123092                       # Number of floating regfile reads (Count)
system.cpu0.fpRegfileWrites                     66549                       # Number of floating regfile writes (Count)
system.cpu0.ccRegfileReads                    2351764                       # number of cc regfile reads (Count)
system.cpu0.ccRegfileWrites                   1923887                       # number of cc regfile writes (Count)
system.cpu0.miscRegfileReads                  1619949                       # number of misc regfile reads (Count)
system.cpu0.miscRegfileWrites                     117                       # number of misc regfile writes (Count)
system.cpu0.MemDepUnit__0.insertedLoads        630175                       # Number of loads inserted to the mem dependence unit. (Count)
system.cpu0.MemDepUnit__0.insertedStores       238238                       # Number of stores inserted to the mem dependence unit. (Count)
system.cpu0.MemDepUnit__0.conflictingLoads        17473                       # Number of conflicting loads. (Count)
system.cpu0.MemDepUnit__0.conflictingStores        10959                       # Number of conflicting stores. (Count)
system.cpu0.MemDepUnit__1.insertedLoads             0                       # Number of loads inserted to the mem dependence unit. (Count)
system.cpu0.MemDepUnit__1.insertedStores            0                       # Number of stores inserted to the mem dependence unit. (Count)
system.cpu0.MemDepUnit__1.conflictingLoads            0                       # Number of conflicting loads. (Count)
system.cpu0.MemDepUnit__1.conflictingStores            0                       # Number of conflicting stores. (Count)
system.cpu0.MemDepUnit__2.insertedLoads             0                       # Number of loads inserted to the mem dependence unit. (Count)
system.cpu0.MemDepUnit__2.insertedStores            0                       # Number of stores inserted to the mem dependence unit. (Count)
system.cpu0.MemDepUnit__2.conflictingLoads            0                       # Number of conflicting loads. (Count)
system.cpu0.MemDepUnit__2.conflictingStores            0                       # Number of conflicting stores. (Count)
system.cpu0.MemDepUnit__3.insertedLoads             0                       # Number of loads inserted to the mem dependence unit. (Count)
system.cpu0.MemDepUnit__3.insertedStores            0                       # Number of stores inserted to the mem dependence unit. (Count)
system.cpu0.MemDepUnit__3.conflictingLoads            0                       # Number of conflicting loads. (Count)
system.cpu0.MemDepUnit__3.conflictingStores            0                       # Number of conflicting stores. (Count)
system.cpu0.branchPred.lookups                 482723                       # Number of BP lookups (Count)
system.cpu0.branchPred.condPredicted           422260                       # Number of conditional branches predicted (Count)
system.cpu0.branchPred.condIncorrect            13973                       # Number of conditional branches incorrect (Count)
system.cpu0.branchPred.BTBLookups              249613                       # Number of BTB lookups (Count)
system.cpu0.branchPred.BTBHits                 247140                       # Number of BTB hits (Count)
system.cpu0.branchPred.BTBHitRatio           0.990093                       # BTB Hit Ratio (Ratio)
system.cpu0.branchPred.RASUsed                  11998                       # Number of times the RAS was used to get a target. (Count)
system.cpu0.branchPred.RASIncorrect                13                       # Number of incorrect RAS predictions. (Count)
system.cpu0.branchPred.indirectLookups           6173                       # Number of indirect predictor lookups. (Count)
system.cpu0.branchPred.indirectHits              3923                       # Number of indirect target hits. (Count)
system.cpu0.branchPred.indirectMisses            2250                       # Number of indirect misses. (Count)
system.cpu0.branchPred.indirectMispredicted          563                       # Number of mispredicted indirect branches. (Count)
system.cpu0.commit.commitSquashedInsts        1005829                       # The number of squashed insts skipped by commit (Count)
system.cpu0.commit.commitNonSpecStalls            119                       # The number of times commit has been forced to stall to communicate backwards (Count)
system.cpu0.commit.branchMispredicts            14327                       # The number of times a branch was mispredicted (Count)
system.cpu0.commit.numCommittedDist::samples      5753630                       # Number of insts commited each cycle (Count)
system.cpu0.commit.numCommittedDist::mean     0.677007                       # Number of insts commited each cycle (Count)
system.cpu0.commit.numCommittedDist::stdev     1.876799                       # Number of insts commited each cycle (Count)
system.cpu0.commit.numCommittedDist::underflows            0      0.00%      0.00% # Number of insts commited each cycle (Count)
system.cpu0.commit.numCommittedDist::0        4800663     83.44%     83.44% # Number of insts commited each cycle (Count)
system.cpu0.commit.numCommittedDist::1         233235      4.05%     87.49% # Number of insts commited each cycle (Count)
system.cpu0.commit.numCommittedDist::2          83551      1.45%     88.94% # Number of insts commited each cycle (Count)
system.cpu0.commit.numCommittedDist::3         247195      4.30%     93.24% # Number of insts commited each cycle (Count)
system.cpu0.commit.numCommittedDist::4          32219      0.56%     93.80% # Number of insts commited each cycle (Count)
system.cpu0.commit.numCommittedDist::5          26399      0.46%     94.26% # Number of insts commited each cycle (Count)
system.cpu0.commit.numCommittedDist::6          24833      0.43%     94.69% # Number of insts commited each cycle (Count)
system.cpu0.commit.numCommittedDist::7         100823      1.75%     96.44% # Number of insts commited each cycle (Count)
system.cpu0.commit.numCommittedDist::8         204712      3.56%    100.00% # Number of insts commited each cycle (Count)
system.cpu0.commit.numCommittedDist::overflows            0      0.00%    100.00% # Number of insts commited each cycle (Count)
system.cpu0.commit.numCommittedDist::min_value            0                       # Number of insts commited each cycle (Count)
system.cpu0.commit.numCommittedDist::max_value            8                       # Number of insts commited each cycle (Count)
system.cpu0.commit.numCommittedDist::total      5753630                       # Number of insts commited each cycle (Count)
system.cpu0.commit.instsCommitted             2235235                       # Number of instructions committed (Count)
system.cpu0.commit.opsCommitted               3895248                       # Number of ops (including micro ops) committed (Count)
system.cpu0.commit.memRefs                     692789                       # Number of memory references committed (Count)
system.cpu0.commit.loads                       507294                       # Number of loads committed (Count)
system.cpu0.commit.amos                             0                       # Number of atomic instructions committed (Count)
system.cpu0.commit.membars                          2                       # Number of memory barriers committed (Count)
system.cpu0.commit.branches                    352613                       # Number of branches committed (Count)
system.cpu0.commit.vectorInstructions               0                       # Number of committed Vector instructions. (Count)
system.cpu0.commit.floating                     74193                       # Number of committed floating point instructions. (Count)
system.cpu0.commit.integer                    3832302                       # Number of committed integer instructions. (Count)
system.cpu0.commit.functionCalls                 9753                       # Number of function calls committed. (Count)
system.cpu0.commit.committedInstType_0::No_OpClass        11284      0.29%      0.29% # Class of committed instruction (Count)
system.cpu0.commit.committedInstType_0::IntAlu      3107909     79.79%     80.08% # Class of committed instruction (Count)
system.cpu0.commit.committedInstType_0::IntMult           31      0.00%     80.08% # Class of committed instruction (Count)
system.cpu0.commit.committedInstType_0::IntDiv        36167      0.93%     81.01% # Class of committed instruction (Count)
system.cpu0.commit.committedInstType_0::FloatAdd         4777      0.12%     81.13% # Class of committed instruction (Count)
system.cpu0.commit.committedInstType_0::FloatCmp            0      0.00%     81.13% # Class of committed instruction (Count)
system.cpu0.commit.committedInstType_0::FloatCvt          208      0.01%     81.13% # Class of committed instruction (Count)
system.cpu0.commit.committedInstType_0::FloatMult            0      0.00%     81.13% # Class of committed instruction (Count)
system.cpu0.commit.committedInstType_0::FloatMultAcc            0      0.00%     81.13% # Class of committed instruction (Count)
system.cpu0.commit.committedInstType_0::FloatDiv            0      0.00%     81.13% # Class of committed instruction (Count)
system.cpu0.commit.committedInstType_0::FloatMisc            0      0.00%     81.13% # Class of committed instruction (Count)
system.cpu0.commit.committedInstType_0::FloatSqrt            0      0.00%     81.13% # Class of committed instruction (Count)
system.cpu0.commit.committedInstType_0::SimdAdd         6370      0.16%     81.30% # Class of committed instruction (Count)
system.cpu0.commit.committedInstType_0::SimdAddAcc            0      0.00%     81.30% # Class of committed instruction (Count)
system.cpu0.commit.committedInstType_0::SimdAlu        10956      0.28%     81.58% # Class of committed instruction (Count)
system.cpu0.commit.committedInstType_0::SimdCmp            6      0.00%     81.58% # Class of committed instruction (Count)
system.cpu0.commit.committedInstType_0::SimdCvt        12976      0.33%     81.91% # Class of committed instruction (Count)
system.cpu0.commit.committedInstType_0::SimdMisc        11476      0.29%     82.21% # Class of committed instruction (Count)
system.cpu0.commit.committedInstType_0::SimdMult            0      0.00%     82.21% # Class of committed instruction (Count)
system.cpu0.commit.committedInstType_0::SimdMultAcc            0      0.00%     82.21% # Class of committed instruction (Count)
system.cpu0.commit.committedInstType_0::SimdShift          299      0.01%     82.21% # Class of committed instruction (Count)
system.cpu0.commit.committedInstType_0::SimdShiftAcc            0      0.00%     82.21% # Class of committed instruction (Count)
system.cpu0.commit.committedInstType_0::SimdDiv            0      0.00%     82.21% # Class of committed instruction (Count)
system.cpu0.commit.committedInstType_0::SimdSqrt            0      0.00%     82.21% # Class of committed instruction (Count)
system.cpu0.commit.committedInstType_0::SimdFloatAdd            0      0.00%     82.21% # Class of committed instruction (Count)
system.cpu0.commit.committedInstType_0::SimdFloatAlu            0      0.00%     82.21% # Class of committed instruction (Count)
system.cpu0.commit.committedInstType_0::SimdFloatCmp            0      0.00%     82.21% # Class of committed instruction (Count)
system.cpu0.commit.committedInstType_0::SimdFloatCvt            0      0.00%     82.21% # Class of committed instruction (Count)
system.cpu0.commit.committedInstType_0::SimdFloatDiv            0      0.00%     82.21% # Class of committed instruction (Count)
system.cpu0.commit.committedInstType_0::SimdFloatMisc            0      0.00%     82.21% # Class of committed instruction (Count)
system.cpu0.commit.committedInstType_0::SimdFloatMult            0      0.00%     82.21% # Class of committed instruction (Count)
system.cpu0.commit.committedInstType_0::SimdFloatMultAcc            0      0.00%     82.21% # Class of committed instruction (Count)
system.cpu0.commit.committedInstType_0::SimdFloatSqrt            0      0.00%     82.21% # Class of committed instruction (Count)
system.cpu0.commit.committedInstType_0::SimdReduceAdd            0      0.00%     82.21% # Class of committed instruction (Count)
system.cpu0.commit.committedInstType_0::SimdReduceAlu            0      0.00%     82.21% # Class of committed instruction (Count)
system.cpu0.commit.committedInstType_0::SimdReduceCmp            0      0.00%     82.21% # Class of committed instruction (Count)
system.cpu0.commit.committedInstType_0::SimdFloatReduceAdd            0      0.00%     82.21% # Class of committed instruction (Count)
system.cpu0.commit.committedInstType_0::SimdFloatReduceCmp            0      0.00%     82.21% # Class of committed instruction (Count)
system.cpu0.commit.committedInstType_0::SimdAes            0      0.00%     82.21% # Class of committed instruction (Count)
system.cpu0.commit.committedInstType_0::SimdAesMix            0      0.00%     82.21% # Class of committed instruction (Count)
system.cpu0.commit.committedInstType_0::SimdSha1Hash            0      0.00%     82.21% # Class of committed instruction (Count)
system.cpu0.commit.committedInstType_0::SimdSha1Hash2            0      0.00%     82.21% # Class of committed instruction (Count)
system.cpu0.commit.committedInstType_0::SimdSha256Hash            0      0.00%     82.21% # Class of committed instruction (Count)
system.cpu0.commit.committedInstType_0::SimdSha256Hash2            0      0.00%     82.21% # Class of committed instruction (Count)
system.cpu0.commit.committedInstType_0::SimdShaSigma2            0      0.00%     82.21% # Class of committed instruction (Count)
system.cpu0.commit.committedInstType_0::SimdShaSigma3            0      0.00%     82.21% # Class of committed instruction (Count)
system.cpu0.commit.committedInstType_0::SimdPredAlu            0      0.00%     82.21% # Class of committed instruction (Count)
system.cpu0.commit.committedInstType_0::MemRead       493460     12.67%     94.88% # Class of committed instruction (Count)
system.cpu0.commit.committedInstType_0::MemWrite       174725      4.49%     99.37% # Class of committed instruction (Count)
system.cpu0.commit.committedInstType_0::FloatMemRead        13834      0.36%     99.72% # Class of committed instruction (Count)
system.cpu0.commit.committedInstType_0::FloatMemWrite        10770      0.28%    100.00% # Class of committed instruction (Count)
system.cpu0.commit.committedInstType_0::IprAccess            0      0.00%    100.00% # Class of committed instruction (Count)
system.cpu0.commit.committedInstType_0::InstPrefetch            0      0.00%    100.00% # Class of committed instruction (Count)
system.cpu0.commit.committedInstType_0::total      3895248                       # Class of committed instruction (Count)
system.cpu0.commit.commitEligibleSamples       204712                       # number cycles where commit BW limit reached (Cycle)
system.cpu0.dcache.demandHits::cpu0.data       677276                       # number of demand (read+write) hits (Count)
system.cpu0.dcache.demandHits::total           677276                       # number of demand (read+write) hits (Count)
system.cpu0.dcache.overallHits::cpu0.data       677276                       # number of overall hits (Count)
system.cpu0.dcache.overallHits::total          677276                       # number of overall hits (Count)
system.cpu0.dcache.demandMisses::cpu0.data        48174                       # number of demand (read+write) misses (Count)
system.cpu0.dcache.demandMisses::total          48174                       # number of demand (read+write) misses (Count)
system.cpu0.dcache.overallMisses::cpu0.data        48174                       # number of overall misses (Count)
system.cpu0.dcache.overallMisses::total         48174                       # number of overall misses (Count)
system.cpu0.dcache.demandMissLatency::cpu0.data   5463350744                       # number of demand (read+write) miss ticks (Tick)
system.cpu0.dcache.demandMissLatency::total   5463350744                       # number of demand (read+write) miss ticks (Tick)
system.cpu0.dcache.overallMissLatency::cpu0.data   5463350744                       # number of overall miss ticks (Tick)
system.cpu0.dcache.overallMissLatency::total   5463350744                       # number of overall miss ticks (Tick)
system.cpu0.dcache.demandAccesses::cpu0.data       725450                       # number of demand (read+write) accesses (Count)
system.cpu0.dcache.demandAccesses::total       725450                       # number of demand (read+write) accesses (Count)
system.cpu0.dcache.overallAccesses::cpu0.data       725450                       # number of overall (read+write) accesses (Count)
system.cpu0.dcache.overallAccesses::total       725450                       # number of overall (read+write) accesses (Count)
system.cpu0.dcache.demandMissRate::cpu0.data     0.066406                       # miss rate for demand accesses (Ratio)
system.cpu0.dcache.demandMissRate::total     0.066406                       # miss rate for demand accesses (Ratio)
system.cpu0.dcache.overallMissRate::cpu0.data     0.066406                       # miss rate for overall accesses (Ratio)
system.cpu0.dcache.overallMissRate::total     0.066406                       # miss rate for overall accesses (Ratio)
system.cpu0.dcache.demandAvgMissLatency::cpu0.data 113408.700627                       # average overall miss latency in ticks ((Tick/Count))
system.cpu0.dcache.demandAvgMissLatency::total 113408.700627                       # average overall miss latency in ticks ((Tick/Count))
system.cpu0.dcache.overallAvgMissLatency::cpu0.data 113408.700627                       # average overall miss latency ((Tick/Count))
system.cpu0.dcache.overallAvgMissLatency::total 113408.700627                       # average overall miss latency ((Tick/Count))
system.cpu0.dcache.blockedCycles::no_mshrs       149247                       # number of cycles access was blocked (Cycle)
system.cpu0.dcache.blockedCycles::no_targets           12                       # number of cycles access was blocked (Cycle)
system.cpu0.dcache.blockedCauses::no_mshrs         1142                       # number of times access was blocked (Count)
system.cpu0.dcache.blockedCauses::no_targets            3                       # number of times access was blocked (Count)
system.cpu0.dcache.avgBlocked::no_mshrs    130.689142                       # average number of cycles each access was blocked ((Cycle/Count))
system.cpu0.dcache.avgBlocked::no_targets            4                       # average number of cycles each access was blocked ((Cycle/Count))
system.cpu0.dcache.writebacks::writebacks         3098                       # number of writebacks (Count)
system.cpu0.dcache.writebacks::total             3098                       # number of writebacks (Count)
system.cpu0.dcache.demandMshrHits::cpu0.data        31506                       # number of demand (read+write) MSHR hits (Count)
system.cpu0.dcache.demandMshrHits::total        31506                       # number of demand (read+write) MSHR hits (Count)
system.cpu0.dcache.overallMshrHits::cpu0.data        31506                       # number of overall MSHR hits (Count)
system.cpu0.dcache.overallMshrHits::total        31506                       # number of overall MSHR hits (Count)
system.cpu0.dcache.demandMshrMisses::cpu0.data        16668                       # number of demand (read+write) MSHR misses (Count)
system.cpu0.dcache.demandMshrMisses::total        16668                       # number of demand (read+write) MSHR misses (Count)
system.cpu0.dcache.overallMshrMisses::cpu0.data        16668                       # number of overall MSHR misses (Count)
system.cpu0.dcache.overallMshrMisses::total        16668                       # number of overall MSHR misses (Count)
system.cpu0.dcache.demandMshrMissLatency::cpu0.data   1634588244                       # number of demand (read+write) MSHR miss ticks (Tick)
system.cpu0.dcache.demandMshrMissLatency::total   1634588244                       # number of demand (read+write) MSHR miss ticks (Tick)
system.cpu0.dcache.overallMshrMissLatency::cpu0.data   1634588244                       # number of overall MSHR miss ticks (Tick)
system.cpu0.dcache.overallMshrMissLatency::total   1634588244                       # number of overall MSHR miss ticks (Tick)
system.cpu0.dcache.demandMshrMissRate::cpu0.data     0.022976                       # mshr miss ratio for demand accesses (Ratio)
system.cpu0.dcache.demandMshrMissRate::total     0.022976                       # mshr miss ratio for demand accesses (Ratio)
system.cpu0.dcache.overallMshrMissRate::cpu0.data     0.022976                       # mshr miss ratio for overall accesses (Ratio)
system.cpu0.dcache.overallMshrMissRate::total     0.022976                       # mshr miss ratio for overall accesses (Ratio)
system.cpu0.dcache.demandAvgMshrMissLatency::cpu0.data 98067.449244                       # average overall mshr miss latency ((Tick/Count))
system.cpu0.dcache.demandAvgMshrMissLatency::total 98067.449244                       # average overall mshr miss latency ((Tick/Count))
system.cpu0.dcache.overallAvgMshrMissLatency::cpu0.data 98067.449244                       # average overall mshr miss latency ((Tick/Count))
system.cpu0.dcache.overallAvgMshrMissLatency::total 98067.449244                       # average overall mshr miss latency ((Tick/Count))
system.cpu0.dcache.replacements                 16153                       # number of replacements (Count)
system.cpu0.dcache.CleanInvalidReq.missLatency::cpu0.data        67250                       # number of CleanInvalidReq miss ticks (Tick)
system.cpu0.dcache.CleanInvalidReq.missLatency::total        67250                       # number of CleanInvalidReq miss ticks (Tick)
system.cpu0.dcache.CleanInvalidReq.avgMissLatency::cpu0.data          inf                       # average CleanInvalidReq miss latency ((Tick/Count))
system.cpu0.dcache.CleanInvalidReq.avgMissLatency::total          inf                       # average CleanInvalidReq miss latency ((Tick/Count))
system.cpu0.dcache.CleanInvalidReq.mshrMisses::cpu0.data            2                       # number of CleanInvalidReq MSHR misses (Count)
system.cpu0.dcache.CleanInvalidReq.mshrMisses::total            2                       # number of CleanInvalidReq MSHR misses (Count)
system.cpu0.dcache.CleanInvalidReq.mshrMissLatency::cpu0.data        66250                       # number of CleanInvalidReq MSHR miss ticks (Tick)
system.cpu0.dcache.CleanInvalidReq.mshrMissLatency::total        66250                       # number of CleanInvalidReq MSHR miss ticks (Tick)
system.cpu0.dcache.CleanInvalidReq.mshrMissRate::cpu0.data          inf                       # mshr miss rate for CleanInvalidReq accesses (Ratio)
system.cpu0.dcache.CleanInvalidReq.mshrMissRate::total          inf                       # mshr miss rate for CleanInvalidReq accesses (Ratio)
system.cpu0.dcache.CleanInvalidReq.avgMshrMissLatency::cpu0.data        33125                       # average CleanInvalidReq mshr miss latency ((Tick/Count))
system.cpu0.dcache.CleanInvalidReq.avgMshrMissLatency::total        33125                       # average CleanInvalidReq mshr miss latency ((Tick/Count))
system.cpu0.dcache.ReadReq.hits::cpu0.data       494015                       # number of ReadReq hits (Count)
system.cpu0.dcache.ReadReq.hits::total         494015                       # number of ReadReq hits (Count)
system.cpu0.dcache.ReadReq.misses::cpu0.data        45939                       # number of ReadReq misses (Count)
system.cpu0.dcache.ReadReq.misses::total        45939                       # number of ReadReq misses (Count)
system.cpu0.dcache.ReadReq.missLatency::cpu0.data   5256060500                       # number of ReadReq miss ticks (Tick)
system.cpu0.dcache.ReadReq.missLatency::total   5256060500                       # number of ReadReq miss ticks (Tick)
system.cpu0.dcache.ReadReq.accesses::cpu0.data       539954                       # number of ReadReq accesses(hits+misses) (Count)
system.cpu0.dcache.ReadReq.accesses::total       539954                       # number of ReadReq accesses(hits+misses) (Count)
system.cpu0.dcache.ReadReq.missRate::cpu0.data     0.085079                       # miss rate for ReadReq accesses (Ratio)
system.cpu0.dcache.ReadReq.missRate::total     0.085079                       # miss rate for ReadReq accesses (Ratio)
system.cpu0.dcache.ReadReq.avgMissLatency::cpu0.data 114413.907573                       # average ReadReq miss latency ((Tick/Count))
system.cpu0.dcache.ReadReq.avgMissLatency::total 114413.907573                       # average ReadReq miss latency ((Tick/Count))
system.cpu0.dcache.ReadReq.mshrHits::cpu0.data        31498                       # number of ReadReq MSHR hits (Count)
system.cpu0.dcache.ReadReq.mshrHits::total        31498                       # number of ReadReq MSHR hits (Count)
system.cpu0.dcache.ReadReq.mshrMisses::cpu0.data        14441                       # number of ReadReq MSHR misses (Count)
system.cpu0.dcache.ReadReq.mshrMisses::total        14441                       # number of ReadReq MSHR misses (Count)
system.cpu0.dcache.ReadReq.mshrMissLatency::cpu0.data   1429208750                       # number of ReadReq MSHR miss ticks (Tick)
system.cpu0.dcache.ReadReq.mshrMissLatency::total   1429208750                       # number of ReadReq MSHR miss ticks (Tick)
system.cpu0.dcache.ReadReq.mshrMissRate::cpu0.data     0.026745                       # mshr miss rate for ReadReq accesses (Ratio)
system.cpu0.dcache.ReadReq.mshrMissRate::total     0.026745                       # mshr miss rate for ReadReq accesses (Ratio)
system.cpu0.dcache.ReadReq.avgMshrMissLatency::cpu0.data 98968.821411                       # average ReadReq mshr miss latency ((Tick/Count))
system.cpu0.dcache.ReadReq.avgMshrMissLatency::total 98968.821411                       # average ReadReq mshr miss latency ((Tick/Count))
system.cpu0.dcache.WriteReq.hits::cpu0.data       183261                       # number of WriteReq hits (Count)
system.cpu0.dcache.WriteReq.hits::total        183261                       # number of WriteReq hits (Count)
system.cpu0.dcache.WriteReq.misses::cpu0.data         2235                       # number of WriteReq misses (Count)
system.cpu0.dcache.WriteReq.misses::total         2235                       # number of WriteReq misses (Count)
system.cpu0.dcache.WriteReq.missLatency::cpu0.data    207290244                       # number of WriteReq miss ticks (Tick)
system.cpu0.dcache.WriteReq.missLatency::total    207290244                       # number of WriteReq miss ticks (Tick)
system.cpu0.dcache.WriteReq.accesses::cpu0.data       185496                       # number of WriteReq accesses(hits+misses) (Count)
system.cpu0.dcache.WriteReq.accesses::total       185496                       # number of WriteReq accesses(hits+misses) (Count)
system.cpu0.dcache.WriteReq.missRate::cpu0.data     0.012049                       # miss rate for WriteReq accesses (Ratio)
system.cpu0.dcache.WriteReq.missRate::total     0.012049                       # miss rate for WriteReq accesses (Ratio)
system.cpu0.dcache.WriteReq.avgMissLatency::cpu0.data 92747.312752                       # average WriteReq miss latency ((Tick/Count))
system.cpu0.dcache.WriteReq.avgMissLatency::total 92747.312752                       # average WriteReq miss latency ((Tick/Count))
system.cpu0.dcache.WriteReq.mshrHits::cpu0.data            8                       # number of WriteReq MSHR hits (Count)
system.cpu0.dcache.WriteReq.mshrHits::total            8                       # number of WriteReq MSHR hits (Count)
system.cpu0.dcache.WriteReq.mshrMisses::cpu0.data         2227                       # number of WriteReq MSHR misses (Count)
system.cpu0.dcache.WriteReq.mshrMisses::total         2227                       # number of WriteReq MSHR misses (Count)
system.cpu0.dcache.WriteReq.mshrMissLatency::cpu0.data    205379494                       # number of WriteReq MSHR miss ticks (Tick)
system.cpu0.dcache.WriteReq.mshrMissLatency::total    205379494                       # number of WriteReq MSHR miss ticks (Tick)
system.cpu0.dcache.WriteReq.mshrMissRate::cpu0.data     0.012006                       # mshr miss rate for WriteReq accesses (Ratio)
system.cpu0.dcache.WriteReq.mshrMissRate::total     0.012006                       # mshr miss rate for WriteReq accesses (Ratio)
system.cpu0.dcache.WriteReq.avgMshrMissLatency::cpu0.data 92222.493938                       # average WriteReq mshr miss latency ((Tick/Count))
system.cpu0.dcache.WriteReq.avgMshrMissLatency::total 92222.493938                       # average WriteReq mshr miss latency ((Tick/Count))
system.cpu0.dcache.power_state.pwrStateResidencyTicks::UNDEFINED   1595034500                       # Cumulative time (in ticks) in various power states (Tick)
system.cpu0.dcache.tags.tagsInUse          495.670526                       # Average ticks per tags in use ((Tick/Count))
system.cpu0.dcache.tags.totalRefs              693946                       # Total number of references to valid blocks. (Count)
system.cpu0.dcache.tags.sampledRefs             16667                       # Sample count of references to valid blocks. (Count)
system.cpu0.dcache.tags.avgRefs             41.635927                       # Average number of references to valid blocks. ((Count/Count))
system.cpu0.dcache.tags.warmupTick             590500                       # The tick when the warmup percentage was hit. (Tick)
system.cpu0.dcache.tags.occupancies::cpu0.data   495.670526                       # Average occupied blocks per tick, per requestor ((Count/Tick))
system.cpu0.dcache.tags.avgOccs::cpu0.data     0.968106                       # Average percentage of cache occupancy ((Ratio/Tick))
system.cpu0.dcache.tags.avgOccs::total       0.968106                       # Average percentage of cache occupancy ((Ratio/Tick))
system.cpu0.dcache.tags.occupanciesTaskId::1024          512                       # Occupied blocks per task id (Count)
system.cpu0.dcache.tags.ageTaskId_1024::0           62                       # Occupied blocks per task id, per block age (Count)
system.cpu0.dcache.tags.ageTaskId_1024::1          448                       # Occupied blocks per task id, per block age (Count)
system.cpu0.dcache.tags.ageTaskId_1024::2            2                       # Occupied blocks per task id, per block age (Count)
system.cpu0.dcache.tags.ratioOccsTaskId::1024            1                       # Ratio of occupied blocks and all blocks, per task id (Ratio)
system.cpu0.dcache.tags.tagAccesses           5820283                       # Number of tag accesses (Count)
system.cpu0.dcache.tags.dataAccesses          5820283                       # Number of data accesses (Count)
system.cpu0.dcache.tags.power_state.pwrStateResidencyTicks::UNDEFINED   1595034500                       # Cumulative time (in ticks) in various power states (Tick)
system.cpu0.decode.idleCycles                  382484                       # Number of cycles decode is idle (Cycle)
system.cpu0.decode.blockedCycles              4793503                       # Number of cycles decode is blocked (Cycle)
system.cpu0.decode.runCycles                   496837                       # Number of cycles decode is running (Cycle)
system.cpu0.decode.unblockCycles               202678                       # Number of cycles decode is unblocking (Cycle)
system.cpu0.decode.squashCycles                 14802                       # Number of cycles decode is squashing (Cycle)
system.cpu0.decode.branchResolved              235192                       # Number of times decode resolved a branch (Count)
system.cpu0.decode.branchMispred                  701                       # Number of times decode detected a branch misprediction (Count)
system.cpu0.decode.decodedInsts               5078152                       # Number of instructions handled by decode (Count)
system.cpu0.decode.squashedInsts                 3332                       # Number of squashed instructions handled by decode (Count)
system.cpu0.dtb_walker_cache.blockedCycles::no_mshrs            0                       # number of cycles access was blocked (Cycle)
system.cpu0.dtb_walker_cache.blockedCycles::no_targets            0                       # number of cycles access was blocked (Cycle)
system.cpu0.dtb_walker_cache.blockedCauses::no_mshrs            0                       # number of times access was blocked (Count)
system.cpu0.dtb_walker_cache.blockedCauses::no_targets            0                       # number of times access was blocked (Count)
system.cpu0.dtb_walker_cache.avgBlocked::no_mshrs          nan                       # average number of cycles each access was blocked ((Cycle/Count))
system.cpu0.dtb_walker_cache.avgBlocked::no_targets          nan                       # average number of cycles each access was blocked ((Cycle/Count))
system.cpu0.dtb_walker_cache.replacements            0                       # number of replacements (Count)
system.cpu0.dtb_walker_cache.power_state.pwrStateResidencyTicks::UNDEFINED   1595034500                       # Cumulative time (in ticks) in various power states (Tick)
system.cpu0.dtb_walker_cache.tags.tagsInUse            0                       # Average ticks per tags in use ((Tick/Count))
system.cpu0.dtb_walker_cache.tags.totalRefs            0                       # Total number of references to valid blocks. (Count)
system.cpu0.dtb_walker_cache.tags.sampledRefs            0                       # Sample count of references to valid blocks. (Count)
system.cpu0.dtb_walker_cache.tags.avgRefs          nan                       # Average number of references to valid blocks. ((Count/Count))
system.cpu0.dtb_walker_cache.tags.warmupTick            0                       # The tick when the warmup percentage was hit. (Tick)
system.cpu0.dtb_walker_cache.tags.tagAccesses            0                       # Number of tag accesses (Count)
system.cpu0.dtb_walker_cache.tags.dataAccesses            0                       # Number of data accesses (Count)
system.cpu0.dtb_walker_cache.tags.power_state.pwrStateResidencyTicks::UNDEFINED   1595034500                       # Cumulative time (in ticks) in various power states (Tick)
system.cpu0.fetch.icacheStallCycles            352166                       # Number of cycles fetch is stalled on an Icache miss (Cycle)
system.cpu0.fetch.insts                       3049159                       # Number of instructions fetch has processed (Count)
system.cpu0.fetch.branches                     482723                       # Number of branches that fetch encountered (Count)
system.cpu0.fetch.predictedBranches            263061                       # Number of branches that fetch has predicted taken (Count)
system.cpu0.fetch.cycles                      5514540                       # Number of cycles fetch has run and was not squashing or blocked (Cycle)
system.cpu0.fetch.squashCycles                  30970                       # Number of cycles fetch has spent squashing (Cycle)
system.cpu0.fetch.miscStallCycles                1076                       # Number of cycles fetch has spent waiting on interrupts, or bad addresses, or out of MSHRs (Cycle)
system.cpu0.fetch.pendingTrapStallCycles         7007                       # Number of stall cycles due to pending traps (Cycle)
system.cpu0.fetch.icacheWaitRetryStallCycles           30                       # Number of stall cycles due to full MSHR (Cycle)
system.cpu0.fetch.cacheLines                   240494                       # Number of cache lines fetched (Count)
system.cpu0.fetch.icacheSquashes                 3423                       # Number of outstanding Icache misses that were squashed (Count)
system.cpu0.fetch.nisnDist::samples           5890304                       # Number of instructions fetched each cycle (Total) (Count)
system.cpu0.fetch.nisnDist::mean             0.903128                       # Number of instructions fetched each cycle (Total) (Count)
system.cpu0.fetch.nisnDist::stdev            2.368317                       # Number of instructions fetched each cycle (Total) (Count)
system.cpu0.fetch.nisnDist::underflows              0      0.00%      0.00% # Number of instructions fetched each cycle (Total) (Count)
system.cpu0.fetch.nisnDist::0                 5049282     85.72%     85.72% # Number of instructions fetched each cycle (Total) (Count)
system.cpu0.fetch.nisnDist::1                   34352      0.58%     86.31% # Number of instructions fetched each cycle (Total) (Count)
system.cpu0.fetch.nisnDist::2                   56821      0.96%     87.27% # Number of instructions fetched each cycle (Total) (Count)
system.cpu0.fetch.nisnDist::3                   35098      0.60%     87.87% # Number of instructions fetched each cycle (Total) (Count)
system.cpu0.fetch.nisnDist::4                   66140      1.12%     88.99% # Number of instructions fetched each cycle (Total) (Count)
system.cpu0.fetch.nisnDist::5                   54010      0.92%     89.91% # Number of instructions fetched each cycle (Total) (Count)
system.cpu0.fetch.nisnDist::6                   88658      1.51%     91.41% # Number of instructions fetched each cycle (Total) (Count)
system.cpu0.fetch.nisnDist::7                   47694      0.81%     92.22% # Number of instructions fetched each cycle (Total) (Count)
system.cpu0.fetch.nisnDist::8                  458249      7.78%    100.00% # Number of instructions fetched each cycle (Total) (Count)
system.cpu0.fetch.nisnDist::overflows               0      0.00%    100.00% # Number of instructions fetched each cycle (Total) (Count)
system.cpu0.fetch.nisnDist::min_value               0                       # Number of instructions fetched each cycle (Total) (Count)
system.cpu0.fetch.nisnDist::max_value               8                       # Number of instructions fetched each cycle (Total) (Count)
system.cpu0.fetch.nisnDist::total             5890304                       # Number of instructions fetched each cycle (Total) (Count)
system.cpu0.fetch.branchRate                 0.075660                       # Number of branch fetches per cycle (Ratio)
system.cpu0.fetch.rate                       0.477914                       # Number of inst fetches per cycle ((Count/Cycle))
system.cpu0.icache.demandHits::cpu0.inst       238523                       # number of demand (read+write) hits (Count)
system.cpu0.icache.demandHits::total           238523                       # number of demand (read+write) hits (Count)
system.cpu0.icache.overallHits::cpu0.inst       238523                       # number of overall hits (Count)
system.cpu0.icache.overallHits::total          238523                       # number of overall hits (Count)
system.cpu0.icache.demandMisses::cpu0.inst         1971                       # number of demand (read+write) misses (Count)
system.cpu0.icache.demandMisses::total           1971                       # number of demand (read+write) misses (Count)
system.cpu0.icache.overallMisses::cpu0.inst         1971                       # number of overall misses (Count)
system.cpu0.icache.overallMisses::total          1971                       # number of overall misses (Count)
system.cpu0.icache.demandMissLatency::cpu0.inst    272754749                       # number of demand (read+write) miss ticks (Tick)
system.cpu0.icache.demandMissLatency::total    272754749                       # number of demand (read+write) miss ticks (Tick)
system.cpu0.icache.overallMissLatency::cpu0.inst    272754749                       # number of overall miss ticks (Tick)
system.cpu0.icache.overallMissLatency::total    272754749                       # number of overall miss ticks (Tick)
system.cpu0.icache.demandAccesses::cpu0.inst       240494                       # number of demand (read+write) accesses (Count)
system.cpu0.icache.demandAccesses::total       240494                       # number of demand (read+write) accesses (Count)
system.cpu0.icache.overallAccesses::cpu0.inst       240494                       # number of overall (read+write) accesses (Count)
system.cpu0.icache.overallAccesses::total       240494                       # number of overall (read+write) accesses (Count)
system.cpu0.icache.demandMissRate::cpu0.inst     0.008196                       # miss rate for demand accesses (Ratio)
system.cpu0.icache.demandMissRate::total     0.008196                       # miss rate for demand accesses (Ratio)
system.cpu0.icache.overallMissRate::cpu0.inst     0.008196                       # miss rate for overall accesses (Ratio)
system.cpu0.icache.overallMissRate::total     0.008196                       # miss rate for overall accesses (Ratio)
system.cpu0.icache.demandAvgMissLatency::cpu0.inst 138383.941654                       # average overall miss latency in ticks ((Tick/Count))
system.cpu0.icache.demandAvgMissLatency::total 138383.941654                       # average overall miss latency in ticks ((Tick/Count))
system.cpu0.icache.overallAvgMissLatency::cpu0.inst 138383.941654                       # average overall miss latency ((Tick/Count))
system.cpu0.icache.overallAvgMissLatency::total 138383.941654                       # average overall miss latency ((Tick/Count))
system.cpu0.icache.blockedCycles::no_mshrs         3068                       # number of cycles access was blocked (Cycle)
system.cpu0.icache.blockedCycles::no_targets            0                       # number of cycles access was blocked (Cycle)
system.cpu0.icache.blockedCauses::no_mshrs           12                       # number of times access was blocked (Count)
system.cpu0.icache.blockedCauses::no_targets            0                       # number of times access was blocked (Count)
system.cpu0.icache.avgBlocked::no_mshrs    255.666667                       # average number of cycles each access was blocked ((Cycle/Count))
system.cpu0.icache.avgBlocked::no_targets          nan                       # average number of cycles each access was blocked ((Cycle/Count))
system.cpu0.icache.writebacks::writebacks          959                       # number of writebacks (Count)
system.cpu0.icache.writebacks::total              959                       # number of writebacks (Count)
system.cpu0.icache.demandMshrHits::cpu0.inst          498                       # number of demand (read+write) MSHR hits (Count)
system.cpu0.icache.demandMshrHits::total          498                       # number of demand (read+write) MSHR hits (Count)
system.cpu0.icache.overallMshrHits::cpu0.inst          498                       # number of overall MSHR hits (Count)
system.cpu0.icache.overallMshrHits::total          498                       # number of overall MSHR hits (Count)
system.cpu0.icache.demandMshrMisses::cpu0.inst         1473                       # number of demand (read+write) MSHR misses (Count)
system.cpu0.icache.demandMshrMisses::total         1473                       # number of demand (read+write) MSHR misses (Count)
system.cpu0.icache.overallMshrMisses::cpu0.inst         1473                       # number of overall MSHR misses (Count)
system.cpu0.icache.overallMshrMisses::total         1473                       # number of overall MSHR misses (Count)
system.cpu0.icache.demandMshrMissLatency::cpu0.inst    207937249                       # number of demand (read+write) MSHR miss ticks (Tick)
system.cpu0.icache.demandMshrMissLatency::total    207937249                       # number of demand (read+write) MSHR miss ticks (Tick)
system.cpu0.icache.overallMshrMissLatency::cpu0.inst    207937249                       # number of overall MSHR miss ticks (Tick)
system.cpu0.icache.overallMshrMissLatency::total    207937249                       # number of overall MSHR miss ticks (Tick)
system.cpu0.icache.demandMshrMissRate::cpu0.inst     0.006125                       # mshr miss ratio for demand accesses (Ratio)
system.cpu0.icache.demandMshrMissRate::total     0.006125                       # mshr miss ratio for demand accesses (Ratio)
system.cpu0.icache.overallMshrMissRate::cpu0.inst     0.006125                       # mshr miss ratio for overall accesses (Ratio)
system.cpu0.icache.overallMshrMissRate::total     0.006125                       # mshr miss ratio for overall accesses (Ratio)
system.cpu0.icache.demandAvgMshrMissLatency::cpu0.inst 141165.817379                       # average overall mshr miss latency ((Tick/Count))
system.cpu0.icache.demandAvgMshrMissLatency::total 141165.817379                       # average overall mshr miss latency ((Tick/Count))
system.cpu0.icache.overallAvgMshrMissLatency::cpu0.inst 141165.817379                       # average overall mshr miss latency ((Tick/Count))
system.cpu0.icache.overallAvgMshrMissLatency::total 141165.817379                       # average overall mshr miss latency ((Tick/Count))
system.cpu0.icache.replacements                   959                       # number of replacements (Count)
system.cpu0.icache.ReadReq.hits::cpu0.inst       238523                       # number of ReadReq hits (Count)
system.cpu0.icache.ReadReq.hits::total         238523                       # number of ReadReq hits (Count)
system.cpu0.icache.ReadReq.misses::cpu0.inst         1971                       # number of ReadReq misses (Count)
system.cpu0.icache.ReadReq.misses::total         1971                       # number of ReadReq misses (Count)
system.cpu0.icache.ReadReq.missLatency::cpu0.inst    272754749                       # number of ReadReq miss ticks (Tick)
system.cpu0.icache.ReadReq.missLatency::total    272754749                       # number of ReadReq miss ticks (Tick)
system.cpu0.icache.ReadReq.accesses::cpu0.inst       240494                       # number of ReadReq accesses(hits+misses) (Count)
system.cpu0.icache.ReadReq.accesses::total       240494                       # number of ReadReq accesses(hits+misses) (Count)
system.cpu0.icache.ReadReq.missRate::cpu0.inst     0.008196                       # miss rate for ReadReq accesses (Ratio)
system.cpu0.icache.ReadReq.missRate::total     0.008196                       # miss rate for ReadReq accesses (Ratio)
system.cpu0.icache.ReadReq.avgMissLatency::cpu0.inst 138383.941654                       # average ReadReq miss latency ((Tick/Count))
system.cpu0.icache.ReadReq.avgMissLatency::total 138383.941654                       # average ReadReq miss latency ((Tick/Count))
system.cpu0.icache.ReadReq.mshrHits::cpu0.inst          498                       # number of ReadReq MSHR hits (Count)
system.cpu0.icache.ReadReq.mshrHits::total          498                       # number of ReadReq MSHR hits (Count)
system.cpu0.icache.ReadReq.mshrMisses::cpu0.inst         1473                       # number of ReadReq MSHR misses (Count)
system.cpu0.icache.ReadReq.mshrMisses::total         1473                       # number of ReadReq MSHR misses (Count)
system.cpu0.icache.ReadReq.mshrMissLatency::cpu0.inst    207937249                       # number of ReadReq MSHR miss ticks (Tick)
system.cpu0.icache.ReadReq.mshrMissLatency::total    207937249                       # number of ReadReq MSHR miss ticks (Tick)
system.cpu0.icache.ReadReq.mshrMissRate::cpu0.inst     0.006125                       # mshr miss rate for ReadReq accesses (Ratio)
system.cpu0.icache.ReadReq.mshrMissRate::total     0.006125                       # mshr miss rate for ReadReq accesses (Ratio)
system.cpu0.icache.ReadReq.avgMshrMissLatency::cpu0.inst 141165.817379                       # average ReadReq mshr miss latency ((Tick/Count))
system.cpu0.icache.ReadReq.avgMshrMissLatency::total 141165.817379                       # average ReadReq mshr miss latency ((Tick/Count))
system.cpu0.icache.power_state.pwrStateResidencyTicks::UNDEFINED   1595034500                       # Cumulative time (in ticks) in various power states (Tick)
system.cpu0.icache.tags.tagsInUse          498.890417                       # Average ticks per tags in use ((Tick/Count))
system.cpu0.icache.tags.totalRefs              239995                       # Total number of references to valid blocks. (Count)
system.cpu0.icache.tags.sampledRefs              1472                       # Sample count of references to valid blocks. (Count)
system.cpu0.icache.tags.avgRefs            163.040082                       # Average number of references to valid blocks. ((Count/Count))
system.cpu0.icache.tags.warmupTick             219500                       # The tick when the warmup percentage was hit. (Tick)
system.cpu0.icache.tags.occupancies::cpu0.inst   498.890417                       # Average occupied blocks per tick, per requestor ((Count/Tick))
system.cpu0.icache.tags.avgOccs::cpu0.inst     0.974395                       # Average percentage of cache occupancy ((Ratio/Tick))
system.cpu0.icache.tags.avgOccs::total       0.974395                       # Average percentage of cache occupancy ((Ratio/Tick))
system.cpu0.icache.tags.occupanciesTaskId::1024          512                       # Occupied blocks per task id (Count)
system.cpu0.icache.tags.ageTaskId_1024::0           76                       # Occupied blocks per task id, per block age (Count)
system.cpu0.icache.tags.ageTaskId_1024::1          307                       # Occupied blocks per task id, per block age (Count)
system.cpu0.icache.tags.ageTaskId_1024::2           71                       # Occupied blocks per task id, per block age (Count)
system.cpu0.icache.tags.ageTaskId_1024::3           58                       # Occupied blocks per task id, per block age (Count)
system.cpu0.icache.tags.ratioOccsTaskId::1024            1                       # Ratio of occupied blocks and all blocks, per task id (Ratio)
system.cpu0.icache.tags.tagAccesses           1925424                       # Number of tag accesses (Count)
system.cpu0.icache.tags.dataAccesses          1925424                       # Number of data accesses (Count)
system.cpu0.icache.tags.power_state.pwrStateResidencyTicks::UNDEFINED   1595034500                       # Cumulative time (in ticks) in various power states (Tick)
system.cpu0.iew.idleCycles                          0                       # Number of cycles IEW is idle (Cycle)
system.cpu0.iew.squashCycles                    14802                       # Number of cycles IEW is squashing (Cycle)
system.cpu0.iew.blockCycles                   3618577                       # Number of cycles IEW is blocking (Cycle)
system.cpu0.iew.unblockCycles                   59170                       # Number of cycles IEW is unblocking (Cycle)
system.cpu0.iew.dispatchedInsts               4905594                       # Number of instructions dispatched to IQ (Count)
system.cpu0.iew.dispSquashedInsts                 624                       # Number of squashed instructions skipped by dispatch (Count)
system.cpu0.iew.dispLoadInsts                  630175                       # Number of dispatched load instructions (Count)
system.cpu0.iew.dispStoreInsts                 238238                       # Number of dispatched store instructions (Count)
system.cpu0.iew.dispNonSpecInsts                  121                       # Number of dispatched non-speculative instructions (Count)
system.cpu0.iew.iqFullEvents                     8842                       # Number of times the IQ has become full, causing a stall (Count)
system.cpu0.iew.lsqFullEvents                   46241                       # Number of times the LSQ has become full, causing a stall (Count)
system.cpu0.iew.memOrderViolationEvents           109                       # Number of memory order violations (Count)
system.cpu0.iew.predictedTakenIncorrect          6843                       # Number of branches that were predicted taken incorrectly (Count)
system.cpu0.iew.predictedNotTakenIncorrect         9624                       # Number of branches that were predicted not taken incorrectly (Count)
system.cpu0.iew.branchMispredicts               16467                       # Number of branch mispredicts detected at execute (Count)
system.cpu0.iew.instsToCommit                 4497572                       # Cumulative count of insts sent to commit (Count)
system.cpu0.iew.writebackCount                4490247                       # Cumulative count of insts written-back (Count)
system.cpu0.iew.producerInst                  3616327                       # Number of instructions producing a value (Count)
system.cpu0.iew.consumerInst                  6695319                       # Number of instructions consuming a value (Count)
system.cpu0.iew.wbRate                       0.703785                       # Insts written-back per cycle ((Count/Cycle))
system.cpu0.iew.wbFanout                     0.540128                       # Average fanout of values written-back ((Count/Count))
system.cpu0.interrupts.clk_domain.clock          4000                       # Clock period in ticks (Tick)
system.cpu0.itb_walker_cache.blockedCycles::no_mshrs            0                       # number of cycles access was blocked (Cycle)
system.cpu0.itb_walker_cache.blockedCycles::no_targets            0                       # number of cycles access was blocked (Cycle)
system.cpu0.itb_walker_cache.blockedCauses::no_mshrs            0                       # number of times access was blocked (Count)
system.cpu0.itb_walker_cache.blockedCauses::no_targets            0                       # number of times access was blocked (Count)
system.cpu0.itb_walker_cache.avgBlocked::no_mshrs          nan                       # average number of cycles each access was blocked ((Cycle/Count))
system.cpu0.itb_walker_cache.avgBlocked::no_targets          nan                       # average number of cycles each access was blocked ((Cycle/Count))
system.cpu0.itb_walker_cache.replacements            0                       # number of replacements (Count)
system.cpu0.itb_walker_cache.power_state.pwrStateResidencyTicks::UNDEFINED   1595034500                       # Cumulative time (in ticks) in various power states (Tick)
system.cpu0.itb_walker_cache.tags.tagsInUse            0                       # Average ticks per tags in use ((Tick/Count))
system.cpu0.itb_walker_cache.tags.totalRefs            0                       # Total number of references to valid blocks. (Count)
system.cpu0.itb_walker_cache.tags.sampledRefs            0                       # Sample count of references to valid blocks. (Count)
system.cpu0.itb_walker_cache.tags.avgRefs          nan                       # Average number of references to valid blocks. ((Count/Count))
system.cpu0.itb_walker_cache.tags.warmupTick            0                       # The tick when the warmup percentage was hit. (Tick)
system.cpu0.itb_walker_cache.tags.tagAccesses            0                       # Number of tag accesses (Count)
system.cpu0.itb_walker_cache.tags.dataAccesses            0                       # Number of data accesses (Count)
system.cpu0.itb_walker_cache.tags.power_state.pwrStateResidencyTicks::UNDEFINED   1595034500                       # Cumulative time (in ticks) in various power states (Tick)
system.cpu0.l2cache.demandHits::cpu0.inst           76                       # number of demand (read+write) hits (Count)
system.cpu0.l2cache.demandHits::cpu0.data         7030                       # number of demand (read+write) hits (Count)
system.cpu0.l2cache.demandHits::total            7106                       # number of demand (read+write) hits (Count)
system.cpu0.l2cache.overallHits::cpu0.inst           76                       # number of overall hits (Count)
system.cpu0.l2cache.overallHits::cpu0.data         7030                       # number of overall hits (Count)
system.cpu0.l2cache.overallHits::total           7106                       # number of overall hits (Count)
[...]
system.mem_ctrls.dram.numReads::cpu0.inst         1392                       # Number of read requests responded to by this memory (Count)
system.mem_ctrls.dram.numReads::cpu0.data         9637                       # Number of read requests responded to by this memory (Count)
system.mem_ctrls.dram.numReads::total           11029                       # Number of read requests responded to by this memory (Count)
system.mem_ctrls.dram.numWrites::writebacks            1                       # Number of write requests responded to by this memory (Count)
system.mem_ctrls.dram.numWrites::total              1                       # Number of write requests responded to by this memory (Count)
system.mem_ctrls.dram.bwRead::cpu0.inst      55853337                       # Total read bandwidth from this memory ((Byte/Second))
system.mem_ctrls.dram.bwRead::cpu0.data     386680037                       # Total read bandwidth from this memory ((Byte/Second))
system.mem_ctrls.dram.bwRead::total         442533375                       # Total read bandwidth from this memory ((Byte/Second))
system.mem_ctrls.dram.bwInstRead::cpu0.inst     55853337                       # Instruction read bandwidth from this memory ((Byte/Second))
system.mem_ctrls.dram.bwInstRead::total      55853337                       # Instruction read bandwidth from this memory ((Byte/Second))
system.mem_ctrls.dram.bwWrite::writebacks        40125                       # Write bandwidth from this memory ((Byte/Second))
system.mem_ctrls.dram.bwWrite::total            40125                       # Write bandwidth from this memory ((Byte/Second))
system.mem_ctrls.dram.bwTotal::writebacks        40125                       # Total bandwidth to/from this memory ((Byte/Second))
system.mem_ctrls.dram.bwTotal::cpu0.inst     55853337                       # Total bandwidth to/from this memory ((Byte/Second))
system.mem_ctrls.dram.bwTotal::cpu0.data    386680037                       # Total bandwidth to/from this memory ((Byte/Second))
system.mem_ctrls.dram.bwTotal::total        442573499                       # Total bandwidth to/from this memory ((Byte/Second))
system.mem_ctrls.dram.readBursts                11028                       # Number of NVM read bursts (Count)
system.mem_ctrls.dram.writeBursts                   0                       # Number of NVM write bursts (Count)
system.mem_ctrls.dram.perBankRdBursts::0          722                       # Per bank write bursts (Count)
system.mem_ctrls.dram.perBankRdBursts::1          687                       # Per bank write bursts (Count)
system.mem_ctrls.dram.perBankRdBursts::2          659                       # Per bank write bursts (Count)
system.mem_ctrls.dram.perBankRdBursts::3          662                       # Per bank write bursts (Count)
system.mem_ctrls.dram.perBankRdBursts::4          686                       # Per bank write bursts (Count)
system.mem_ctrls.dram.perBankRdBursts::5          728                       # Per bank write bursts (Count)
system.mem_ctrls.dram.perBankRdBursts::6          681                       # Per bank write bursts (Count)
system.mem_ctrls.dram.perBankRdBursts::7          682                       # Per bank write bursts (Count)
system.mem_ctrls.dram.perBankRdBursts::8          682                       # Per bank write bursts (Count)
system.mem_ctrls.dram.perBankRdBursts::9          669                       # Per bank write bursts (Count)
system.mem_ctrls.dram.perBankRdBursts::10          660                       # Per bank write bursts (Count)
system.mem_ctrls.dram.perBankRdBursts::11          672                       # Per bank write bursts (Count)
system.mem_ctrls.dram.perBankRdBursts::12          699                       # Per bank write bursts (Count)
system.mem_ctrls.dram.perBankRdBursts::13          685                       # Per bank write bursts (Count)
system.mem_ctrls.dram.perBankRdBursts::14          729                       # Per bank write bursts (Count)
system.mem_ctrls.dram.perBankRdBursts::15          725                       # Per bank write bursts (Count)
system.mem_ctrls.dram.perBankWrBursts::0            0                       # Per bank write bursts (Count)
system.mem_ctrls.dram.perBankWrBursts::1            0                       # Per bank write bursts (Count)
system.mem_ctrls.dram.perBankWrBursts::2            0                       # Per bank write bursts (Count)
system.mem_ctrls.dram.perBankWrBursts::3            0                       # Per bank write bursts (Count)
system.mem_ctrls.dram.perBankWrBursts::4            0                       # Per bank write bursts (Count)
system.mem_ctrls.dram.perBankWrBursts::5            0                       # Per bank write bursts (Count)
system.mem_ctrls.dram.perBankWrBursts::6            0                       # Per bank write bursts (Count)
system.mem_ctrls.dram.perBankWrBursts::7            0                       # Per bank write bursts (Count)
system.mem_ctrls.dram.perBankWrBursts::8            0                       # Per bank write bursts (Count)
system.mem_ctrls.dram.perBankWrBursts::9            0                       # Per bank write bursts (Count)
system.mem_ctrls.dram.perBankWrBursts::10            0                       # Per bank write bursts (Count)
system.mem_ctrls.dram.perBankWrBursts::11            0                       # Per bank write bursts (Count)
system.mem_ctrls.dram.perBankWrBursts::12            0                       # Per bank write bursts (Count)
system.mem_ctrls.dram.perBankWrBursts::13            0                       # Per bank write bursts (Count)
system.mem_ctrls.dram.perBankWrBursts::14            0                       # Per bank write bursts (Count)
system.mem_ctrls.dram.perBankWrBursts::15            0                       # Per bank write bursts (Count)
system.mem_ctrls.dram.totQLat              1024930596                       # Total ticks spent queuing (Tick)
system.mem_ctrls.dram.totBusLat              36745296                       # Total ticks spent in databus transfers (Tick)
system.mem_ctrls.dram.totMemAccLat         1217832372                       # Total ticks spent from burst creation until serviced by the NVM (Tick)
system.mem_ctrls.dram.avgQLat                92938.94                       # Average queueing delay per NVM burst ((Tick/Count))
system.mem_ctrls.dram.avgBusLat               3332.00                       # Average bus latency per NVM burst ((Tick/Count))
system.mem_ctrls.dram.avgMemAccLat          110430.94                       # Average memory access latency per NVM burst ((Tick/Count))
system.mem_ctrls.dram.avgRdBW                  442.49                       # Average DRAM read bandwidth in MiBytes/s ((Byte/Second))
system.mem_ctrls.dram.avgWrBW                    0.00                       # Average DRAM write bandwidth in MiBytes/s ((Byte/Second))
system.mem_ctrls.dram.peakBW                 19207.00                       # Theoretical peak bandwidth in MiByte/s ((Byte/Second))
system.mem_ctrls.dram.busUtil                    2.30                       # NVM Data bus utilization in percentage (Ratio)
system.mem_ctrls.dram.busUtilRead                2.30                       # NVM Data bus read utilization in percentage (Ratio)
system.mem_ctrls.dram.busUtilWrite               0.00                       # NVM Data bus write utilization in percentage (Ratio)
system.mem_ctrls.dram.pendingReads::samples        11028                       # Reads issued to NVM for which data has not been transferred (Count)
system.mem_ctrls.dram.pendingReads::mean     0.311117                       # Reads issued to NVM for which data has not been transferred (Count)
system.mem_ctrls.dram.pendingReads::stdev     0.652552                       # Reads issued to NVM for which data has not been transferred (Count)
system.mem_ctrls.dram.pendingReads::0            8537     77.41%     77.41% # Reads issued to NVM for which data has not been transferred (Count)
system.mem_ctrls.dram.pendingReads::1            1768     16.03%     93.44% # Reads issued to NVM for which data has not been transferred (Count)
system.mem_ctrls.dram.pendingReads::2             514      4.66%     98.10% # Reads issued to NVM for which data has not been transferred (Count)
system.mem_ctrls.dram.pendingReads::3             202      1.83%     99.94% # Reads issued to NVM for which data has not been transferred (Count)
system.mem_ctrls.dram.pendingReads::4               6      0.05%     99.99% # Reads issued to NVM for which data has not been transferred (Count)
system.mem_ctrls.dram.pendingReads::5               1      0.01%    100.00% # Reads issued to NVM for which data has not been transferred (Count)
system.mem_ctrls.dram.pendingReads::total        11028                       # Reads issued to NVM for which data has not been transferred (Count)
system.mem_ctrls.dram.bytesPerBank::samples         6118                       # Bytes read within a bank before loading new bank (Byte)
system.mem_ctrls.dram.bytesPerBank::mean   115.122589                       # Bytes read within a bank before loading new bank (Byte)
system.mem_ctrls.dram.bytesPerBank::gmean    97.109987                       # Bytes read within a bank before loading new bank (Byte)
system.mem_ctrls.dram.bytesPerBank::stdev    73.269816                       # Bytes read within a bank before loading new bank (Byte)
system.mem_ctrls.dram.bytesPerBank::64-65         3716     60.74%     60.74% # Bytes read within a bank before loading new bank (Byte)
system.mem_ctrls.dram.bytesPerBank::128-129          949     15.51%     76.25% # Bytes read within a bank before loading new bank (Byte)
system.mem_ctrls.dram.bytesPerBank::192-193          421      6.88%     83.13% # Bytes read within a bank before loading new bank (Byte)
system.mem_ctrls.dram.bytesPerBank::256-257         1032     16.87%    100.00% # Bytes read within a bank before loading new bank (Byte)
system.mem_ctrls.dram.bytesPerBank::total         6118                       # Bytes read within a bank before loading new bank (Byte)
system.mem_ctrls.dram.power_state.pwrStateResidencyTicks::UNDEFINED   1595034500                       # Cumulative time (in ticks) in various power states (Tick)
system.mem_ctrls.power_state.pwrStateResidencyTicks::UNDEFINED   1595034500                       # Cumulative time (in ticks) in various power states (Tick)
system.membus.transDist::ReadResp                9656                       # Transaction distribution (Count)
system.membus.transDist::WriteClean                 1                       # Transaction distribution (Count)
system.membus.transDist::ReadExReq               1373                       # Transaction distribution (Count)
system.membus.transDist::ReadExResp              1373                       # Transaction distribution (Count)
system.membus.transDist::ReadSharedReq           9656                       # Transaction distribution (Count)
system.membus.transDist::CleanInvalidReq            2                       # Transaction distribution (Count)
system.membus.pktCount_system.l3.mem_side_port::system.mem_ctrls.port        22061                       # Packet count per connected requestor and responder (Count)
system.membus.pktCount_system.l3.mem_side_port::total        22061                       # Packet count per connected requestor and responder (Count)
system.membus.pktCount::total                   22061                       # Packet count per connected requestor and responder (Count)
system.membus.pktSize_system.l3.mem_side_port::system.mem_ctrls.port       705920                       # Cumulative packet size per connected requestor and responder (Byte)
system.membus.pktSize_system.l3.mem_side_port::total       705920                       # Cumulative packet size per connected requestor and responder (Byte)
system.membus.pktSize::total                   705920                       # Cumulative packet size per connected requestor and responder (Byte)
system.membus.snoops                                0                       # Total snoops (Count)
system.membus.snoopTraffic                          0                       # Total snoop traffic (Byte)
system.membus.snoopFanout::samples              11031                       # Request fanout histogram (Count)
system.membus.snoopFanout::mean                     0                       # Request fanout histogram (Count)
system.membus.snoopFanout::stdev                    0                       # Request fanout histogram (Count)
system.membus.snoopFanout::underflows               0      0.00%      0.00% # Request fanout histogram (Count)
system.membus.snoopFanout::0                    11031    100.00%    100.00% # Request fanout histogram (Count)
system.membus.snoopFanout::1                        0      0.00%    100.00% # Request fanout histogram (Count)
system.membus.snoopFanout::overflows                0      0.00%    100.00% # Request fanout histogram (Count)
system.membus.snoopFanout::min_value                0                       # Request fanout histogram (Count)
system.membus.snoopFanout::max_value                0                       # Request fanout histogram (Count)
system.membus.snoopFanout::total                11031                       # Request fanout histogram (Count)
system.membus.power_state.pwrStateResidencyTicks::UNDEFINED   1595034500                       # Cumulative time (in ticks) in various power states (Tick)
system.membus.reqLayer8.occupancy            15392000                       # Layer occupancy (ticks) (Tick)
system.membus.reqLayer8.utilization               0.0                       # Layer utilization (Ratio)
system.membus.respLayer1.occupancy           59954300                       # Layer occupancy (ticks) (Tick)
system.membus.respLayer1.utilization              0.0                       # Layer utilization (Ratio)
system.membus.snoop_filter.totRequests          11031                       # Total number of requests made to the snoop filter. (Count)
system.membus.snoop_filter.hitSingleRequests            2                       # Number of requests hitting in the snoop filter with a single holder of the requested data. (Count)
system.membus.snoop_filter.hitMultiRequests            0                       # Number of requests hitting in the snoop filter with multiple (>1) holders of the requested data. (Count)
system.membus.snoop_filter.totSnoops                0                       # Total number of snoops made to the snoop filter. (Count)
system.membus.snoop_filter.hitSingleSnoops            0                       # Number of snoops hitting in the snoop filter with a single holder of the requested data. (Count)
system.membus.snoop_filter.hitMultiSnoops            0                       # Number of snoops hitting in the snoop filter with multiple (>1) holders of the requested data. (Count)
system.tol3bus.transDist::ReadResp               9656                       # Transaction distribution (Count)
system.tol3bus.transDist::WriteClean                1                       # Transaction distribution (Count)
system.tol3bus.transDist::ReadExReq              1373                       # Transaction distribution (Count)
system.tol3bus.transDist::ReadExResp             1373                       # Transaction distribution (Count)
system.tol3bus.transDist::ReadSharedReq          9656                       # Transaction distribution (Count)
system.tol3bus.transDist::CleanInvalidReq            2                       # Transaction distribution (Count)
system.tol3bus.transDist::CleanInvalidResp            2                       # Transaction distribution (Count)
system.tol3bus.pktCount_system.cpu0.l2cache.mem_side_port::system.l3.cpu_side_port        22063                       # Packet count per connected requestor and responder (Count)
system.tol3bus.pktCount::total                  22063                       # Packet count per connected requestor and responder (Count)
system.tol3bus.pktSize_system.cpu0.l2cache.mem_side_port::system.l3.cpu_side_port       705920                       # Cumulative packet size per connected requestor and responder (Byte)
system.tol3bus.pktSize::total                  705920                       # Cumulative packet size per connected requestor and responder (Byte)
system.tol3bus.snoops                               0                       # Total snoops (Count)
system.tol3bus.snoopTraffic                         0                       # Total snoop traffic (Byte)
system.tol3bus.snoopFanout::samples             11031                       # Request fanout histogram (Count)
system.tol3bus.snoopFanout::mean                    0                       # Request fanout histogram (Count)
system.tol3bus.snoopFanout::stdev                   0                       # Request fanout histogram (Count)
system.tol3bus.snoopFanout::underflows              0      0.00%      0.00% # Request fanout histogram (Count)
system.tol3bus.snoopFanout::0                   11031    100.00%    100.00% # Request fanout histogram (Count)
system.tol3bus.snoopFanout::1                       0      0.00%    100.00% # Request fanout histogram (Count)
system.tol3bus.snoopFanout::2                       0      0.00%    100.00% # Request fanout histogram (Count)
system.tol3bus.snoopFanout::3                       0      0.00%    100.00% # Request fanout histogram (Count)
system.tol3bus.snoopFanout::4                       0      0.00%    100.00% # Request fanout histogram (Count)
system.tol3bus.snoopFanout::overflows               0      0.00%    100.00% # Request fanout histogram (Count)
system.tol3bus.snoopFanout::min_value               0                       # Request fanout histogram (Count)
system.tol3bus.snoopFanout::max_value               0                       # Request fanout histogram (Count)
system.tol3bus.snoopFanout::total               11031                       # Request fanout histogram (Count)
system.tol3bus.power_state.pwrStateResidencyTicks::UNDEFINED   1595034500                       # Cumulative time (in ticks) in various power states (Tick)
system.tol3bus.reqLayer0.occupancy            2758500                       # Layer occupancy (ticks) (Tick)
system.tol3bus.reqLayer0.utilization              0.0                       # Layer utilization (Ratio)
system.tol3bus.respLayer0.occupancy           8272250                       # Layer occupancy (ticks) (Tick)
system.tol3bus.respLayer0.utilization             0.0                       # Layer utilization (Ratio)
system.tol3bus.snoop_filter.totRequests         11031                       # Total number of requests made to the snoop filter. (Count)
system.tol3bus.snoop_filter.hitSingleRequests            2                       # Number of requests hitting in the snoop filter with a single holder of the requested data. (Count)
system.tol3bus.snoop_filter.hitMultiRequests            0                       # Number of requests hitting in the snoop filter with multiple (>1) holders of the requested data. (Count)
system.tol3bus.snoop_filter.totSnoops               0                       # Total number of snoops made to the snoop filter. (Count)
system.tol3bus.snoop_filter.hitSingleSnoops            0                       # Number of snoops hitting in the snoop filter with a single holder of the requested data. (Count)
system.tol3bus.snoop_filter.hitMultiSnoops            0                       # Number of snoops hitting in the snoop filter with multiple (>1) holders of the requested data. (Count)
system.voltage_domain.voltage                       1                       # Voltage in Volts (Volt)
system.workload.inst.arm                            0                       # number of arm instructions executed (Count)
system.workload.inst.quiesce                        0                       # number of quiesce instructions executed (Count)

---------- End Simulation Statistics   ----------
